 This run of the CFX Release 17.1 Solver started at 14:09:11 on 06 Oct
 2016 by user tapeltie on D0003711 (intel_xeon64.sse2_winnt) using the
 command:
 
  "C:\Program Files\ANSYS Inc\v171\CFX\bin\perllib\cfx5solve.pl"
    -stdout-comms -batch -ccl -
 
 Release 17.1
 
  Point Releases and Patches installed:
  ANSYS, Inc. Products Release 17.1
  ANSYS Mechanical Products Release 17.1
  ANSYS Customization Files for User Programmable Features Release 17.1
  ANSYS Autodyn Release 17.1
  ANSYS LS-DYNA Release 17.1
  ANSYS AIM Release 17.1
  ANSYS CFX (includes ANSYS CFD-Post) Release 17.1
  ANSYS Fluent (includes ANSYS CFD-Post) Release 17.1
  ANSYS TurboGrid Release 17.1
  ANSYS Polyflow (includes ANSYS CFD-Post) Release 17.1
  ANSYS CFD-Post only Release 17.1
  ANSYS FORTE Release 17.1
  ANSYS Chemkin Release 17.1
  ANSYS ICEM CFD Release 17.1
  ANSYS Aqwa Release 17.1
  ANSYS Composite PrepPost Release 17.1
  ANSYS Icepak (includes ANSYS CFD-Post) Release 17.1
  ANSYS Remote Solve Manager Standalone Services Release 17.1
  AutoCAD Release 17.1
  ACIS Release 17.1
  Catia, Version 4 Release 17.1
  Catia, Version 5 Release 17.1
  Catia, Version 6 Release 17.1
  Creo Elements/Direct Modeling Release 17.1
  Inventor Release 17.1
  JTOpen Release 17.1
  NX Release 17.1
  Parasolid Release 17.1
  Creo Parametric (formerly Pro/ENGINEER) Release 17.1
  Solid Edge Release 17.1
  SolidWorks Release 17.1
  ANSYS, Inc. License Manager Release 17.1
 
 Setting up CFX Solver run ...
 

 +--------------------------------------------------------------------+
 |                                                                    |
 |                    CFX Command Language for Run                    |
 |                                                                    |
 +--------------------------------------------------------------------+

 LIBRARY:
   MATERIAL: Water
     Material Description = Water (liquid)
     Material Group = Water Data, Constant Property Liquids
     Option = Pure Substance
     Thermodynamic State = Liquid
     PROPERTIES:
       Option = General Material
       EQUATION OF STATE:
         Density = 997.0 [kg m^-3]
         Molar Mass = 18.02 [kg kmol^-1]
         Option = Value
       END
       SPECIFIC HEAT CAPACITY:
         Option = Value
         Specific Heat Capacity = 4181.7 [J kg^-1 K^-1]
         Specific Heat Type = Constant Pressure
       END
       REFERENCE STATE:
         Option = Specified Point
         Reference Pressure = 1 [atm]
         Reference Specific Enthalpy = 0.0 [J/kg]
         Reference Specific Entropy = 0.0 [J/kg/K]
         Reference Temperature = 25 [C]
       END
       DYNAMIC VISCOSITY:
         Dynamic Viscosity = 8.899E-4 [kg m^-1 s^-1]
         Option = Value
       END
       THERMAL CONDUCTIVITY:
         Option = Value
         Thermal Conductivity = 0.6069 [W m^-1 K^-1]
       END
       ABSORPTION COEFFICIENT:
         Absorption Coefficient = 1.0 [m^-1]
         Option = Value
       END
       SCATTERING COEFFICIENT:
         Option = Value
         Scattering Coefficient = 0.0 [m^-1]
       END
       REFRACTIVE INDEX:
         Option = Value
         Refractive Index = 1.0 [m m^-1]
       END
       THERMAL EXPANSIVITY:
         Option = Value
         Thermal Expansivity = 2.57E-04 [K^-1]
       END
     END
   END
 END
 FLOW: Flow Analysis 1
   SOLUTION UNITS:
     Angle Units = [rad]
     Length Units = [m]
     Mass Units = [kg]
     Solid Angle Units = [sr]
     Temperature Units = [K]
     Time Units = [s]
   END
   ANALYSIS TYPE:
     Option = Steady State
     EXTERNAL SOLVER COUPLING:
       Option = None
     END
   END
   DOMAIN: Default Domain
     Coord Frame = Coord 0
     Domain Type = Fluid
     Location = B1.P3
     BOUNDARY: Default Domain Default
       Boundary Type = WALL
       Location = F1.B1.P3,F2.B1.P3,F4.B1.P3,F5.B1.P3,F6.B1.P3,F8.B1.P3
       BOUNDARY CONDITIONS:
         HEAT TRANSFER:
           Option = Adiabatic
         END
         MASS AND MOMENTUM:
           Option = No Slip Wall
         END
         WALL ROUGHNESS:
           Option = Smooth Wall
         END
       END
     END
     BOUNDARY: in1
       Boundary Type = INLET
       Location = in1
       BOUNDARY CONDITIONS:
         FLOW REGIME:
           Option = Subsonic
         END
         HEAT TRANSFER:
           Option = Static Temperature
           Static Temperature = 315 [K]
         END
         MASS AND MOMENTUM:
           Normal Speed = 2 [m s^-1]
           Option = Normal Speed
         END
         TURBULENCE:
           Option = Medium Intensity and Eddy Viscosity Ratio
         END
       END
     END
     BOUNDARY: in2
       Boundary Type = INLET
       Location = in2
       BOUNDARY CONDITIONS:
         FLOW REGIME:
           Option = Subsonic
         END
         HEAT TRANSFER:
           Option = Static Temperature
           Static Temperature = 285 [K]
         END
         MASS AND MOMENTUM:
           Normal Speed = 2 [m s^-1]
           Option = Normal Speed
         END
         TURBULENCE:
           Option = Medium Intensity and Eddy Viscosity Ratio
         END
       END
     END
     BOUNDARY: out
       Boundary Type = OUTLET
       Location = out
       BOUNDARY CONDITIONS:
         FLOW REGIME:
           Option = Subsonic
         END
         MASS AND MOMENTUM:
           Option = Average Static Pressure
           Pressure Profile Blend = 0.05
           Relative Pressure = 0 [Pa]
         END
         PRESSURE AVERAGING:
           Option = Average Over Whole Outlet
         END
       END
     END
     DOMAIN MODELS:
       BUOYANCY MODEL:
         Option = Non Buoyant
       END
       DOMAIN MOTION:
         Option = Stationary
       END
       MESH DEFORMATION:
         Option = None
       END
       REFERENCE PRESSURE:
         Reference Pressure = 1 [atm]
       END
     END
     FLUID DEFINITION: Water
       Material = Water
       Option = Material Library
       MORPHOLOGY:
         Option = Continuous Fluid
       END
     END
     FLUID MODELS:
       COMBUSTION MODEL:
         Option = None
       END
       HEAT TRANSFER MODEL:
         Option = Thermal Energy
       END
       THERMAL RADIATION MODEL:
         Option = None
       END
       TURBULENCE MODEL:
         Option = k epsilon
       END
       TURBULENT WALL FUNCTIONS:
         Option = Scalable
       END
     END
   END
   OUTPUT CONTROL:
     RESULTS:
       File Compression Level = Default
       Option = Standard
     END
   END
   SOLVER CONTROL:
     Turbulence Numerics = First Order
     ADVECTION SCHEME:
       Option = Upwind
     END
     CONVERGENCE CONTROL:
       Maximum Number of Iterations = 100
       Minimum Number of Iterations = 1
       Physical Timescale = 2 [s]
       Timescale Control = Physical Timescale
     END
     CONVERGENCE CRITERIA:
       Residual Target = 1.E-4
       Residual Type = RMS
     END
     DYNAMIC MODEL CONTROL:
       Global Dynamic Model Control = On
     END
   END
 END
 COMMAND FILE:
   Version = 17.1
   Results Version = 17.1
 END
 SIMULATION CONTROL:
   EXECUTION CONTROL:
     EXECUTABLE SELECTION:
       Double Precision = No
       Large Problem = No
     END
     INTERPOLATOR STEP CONTROL:
       Runtime Priority = Standard
       MEMORY CONTROL:
         Memory Allocation Factor = 1.0
       END
     END
     PARALLEL HOST LIBRARY:
       HOST DEFINITION: d0003711
         Host Architecture String = winnt-amd64
         Installation Root = C:\Program Files\ANSYS Inc\v%v\CFX
       END
     END
     PARTITIONER STEP CONTROL:
       Multidomain Option = Automatic
       Runtime Priority = Standard
       MEMORY CONTROL:
         Memory Allocation Factor = 1.0
       END
       PARTITION SMOOTHING:
         Maximum Partition Smoothing Sweeps = 100
         Option = Smooth
       END
       PARTITIONING TYPE:
         MeTiS Type = k-way
         Option = MeTiS
         Partition Size Rule = Automatic
       END
     END
     RUN DEFINITION:
       Run Mode = Full
       Solver Input File = C:\Users\tapeltie\Documents\THFL_SIM\Tutorial \
         2\StaticMixer.def
       Solver Results File = C:\Users\tapeltie\Documents\THFL_SIM\Tutorial \
         2\StaticMixer_001.res
     END
     SOLVER STEP CONTROL:
       Runtime Priority = Standard
       MEMORY CONTROL:
         Memory Allocation Factor = 1.0
       END
       PARALLEL ENVIRONMENT:
         Number of Processes = 1
         Start Method = Serial
       END
     END
   END
 END
 

 +--------------------------------------------------------------------+
 |                                                                    |
 |                               Solver                               |
 |                                                                    |
 +--------------------------------------------------------------------+




 +--------------------------------------------------------------------+
 |                                                                    |
 |                       ANSYS(R) CFX(R) Solver                       |
 |                                                                    |
 | Release 17.1                                                       |
 | Build 17.1 2016.04.01-23.17-136026                                 |
 | Fri Apr  1 23:52:11 GMTDT 2016                                     |
 |                                                                    |
 |                        Executable Attributes                       |
 |                                                                    |
 |         single-64bit-int32-archfort-optimised-noprof-lcomp         |
 |                                                                    |
 | (C) 2016 ANSYS, Inc.                                               |
 |                                                                    |
 | All rights reserved. Unauthorized use, distribution or duplication |
 | is prohibited. This product is subject to U.S. laws governing      |
 | export and re-export. For full Legal Notice, see documentation.    |
 +--------------------------------------------------------------------+




 +--------------------------------------------------------------------+
 |                  Job Information at Start of Run                   |
 +--------------------------------------------------------------------+

 Run mode:       serial run

 Host computer:  D0003711 (PID:8144)

 Job started:    Thu Oct 06 14:09:14 2016

 +--------------------------------------------------------------------+
 |                        License Information                         |
 +--------------------------------------------------------------------+
 
 License Cap:    ANSYS CFX Solver (Max 128K Nodes)
 License Cap:    ANSYS CFX Solver (Introductory)
 License ID:     inf38.campus.intern-SYSTEM-6140-962487


 +--------------------------------------------------------------------+
 |        Memory Allocated for Run  (Actual usage may be less)        |
 +--------------------------------------------------------------------+

           | Real       | Integer    | Character | Logical  | Double
 ----------+------------+------------+-----------+----------+----------
 Mwords    |       8.69 |       2.05 |      7.17 |     0.12 |     0.09
 Mbytes    |      33.13 |       7.81 |      6.83 |     0.46 |     0.69
 ----------+------------+------------+-----------+----------+----------


 +--------------------------------------------------------------------+
 |                  Host Memory Information (Mbytes)                  |
 +--------------------------------------------------------------------+
 |          Host           |     System     |   Allocated    |   %    |
 +-------------------------+----------------+----------------+--------+
 | D0003711                |     12285.59   |        48.93   |   0.40 |
 +-------------------------+----------------+----------------+--------+


 +--------------------------------------------------------------------+
 |                     ****** Notice ******                           |
 | The Wall Heat Transfer Coefficient written to the results file for |
 | any turbulent phase with heat transfer is based on the turbulent   |
 | wall function coefficient. It is consistent with the Wall Heat Flux|
 | the wall temperature, and the Wall Adjacent Temperature            |
 | (near-wall temperature).  If you would like it to be based on a    |
 | user-specified bulk temperature instead, please set the expert     |
 | parameter "tbulk for htc = <value>".                               |
 +--------------------------------------------------------------------+

 +--------------------------------------------------------------------+
 |                          Mesh Statistics                           |
 +--------------------------------------------------------------------+
 | Domain Name          | Orthog. Angle | Exp. Factor  | Aspect Ratio |
 +----------------------+---------------+--------------+--------------+
 |                      | Minimum [deg] |   Maximum    |    Maximum   |
 +----------------------+---------------+--------------+--------------+
 | Default Domain       |       35.2 ok |        13 ok |         6 OK |
 +----------------------+---------------+--------------+--------------+
 |                      |  %!  %ok  %OK | %!  %ok  %OK | %!  %ok  %OK |
 +----------------------+---------------+--------------+--------------+
 | Default Domain       |   0    3   97 |  0    9   91 |  0    0  100 |
 +----------------------+---------------+--------------+--------------+

 Domain Name : Default Domain

     Total Number of Nodes                                =        2786

     Total Number of Elements                             =       13761
         Total Number of Tetrahedrons                     =       13761

     Total Number of Faces                                =        1630

 +--------------------------------------------------------------------+
 |                     Average Scale Information                      |
 +--------------------------------------------------------------------+

 Domain Name : Default Domain
     Global Length                                         = 3.2143E+00
     Minimum Extent                                        = 4.0000E+00
     Maximum Extent                                        = 6.0000E+00
     Density                                               = 9.9700E+02
     Dynamic Viscosity                                     = 8.8990E-04
     Velocity                                              = 5.9003E-01
     Advection Time                                        = 5.4476E+00
     Reynolds Number                                       = 2.1248E+06
     Thermal Conductivity                                  = 6.0690E-01
     Specific Heat Capacity at Constant Pressure           = 4.1817E+03
     Prandtl Number                                        = 6.1316E+00

 +--------------------------------------------------------------------+
 |                Checking for Isolated Fluid Regions                 |
 +--------------------------------------------------------------------+
 
 No isolated fluid regions were found.

 +--------------------------------------------------------------------+
 |              The Equations Solved in This Calculation              |
 +--------------------------------------------------------------------+

 Subsystem : Momentum and Mass

   U-Mom
   V-Mom
   W-Mom
   P-Mass

 Subsystem : Heat Transfer

   H-Energy

 Subsystem : TurbKE and Diss.K

   K-TurbKE
   E-Diss.K
                   
 CFD Solver started: Thu Oct 06 14:09:15 2016


 +--------------------------------------------------------------------+
 |                       Convergence History                          |
 +--------------------------------------------------------------------+

 ======================================================================
 |                        Timescale Information                       |
 ----------------------------------------------------------------------
 |       Equation       |         Type          |      Timescale      |
 +----------------------+-----------------------+---------------------+
 | U-Mom                | Physical Timescale    |     2.00000E+00     |
 | V-Mom                | Physical Timescale    |     2.00000E+00     |
 | W-Mom                | Physical Timescale    |     2.00000E+00     |
 +----------------------+-----------------------+---------------------+
 | H-Energy             | Physical Timescale    |     2.00000E+00     |
 +----------------------+-----------------------+---------------------+
 | K-TurbKE             | Physical Timescale    |     2.00000E+00     |
 | E-Diss.K             | Physical Timescale    |     2.00000E+00     |
 +----------------------+-----------------------+---------------------+

 ======================================================================
 OUTER LOOP ITERATION =    1                    CPU SECONDS = 1.591E+00
 ----------------------------------------------------------------------
 |       Equation       | Rate | RMS Res | Max Res |  Linear Solution |
 +----------------------+------+---------+---------+------------------+
 | U-Mom                | 0.00 | 3.1E-05 | 2.1E-04 |       6.4E+00  ok|
 | V-Mom                | 0.00 | 4.8E-05 | 8.8E-04 |       6.4E+00  ok|
 | W-Mom                | 0.00 | 1.6E-02 | 4.0E-02 |       3.9E-02  OK|
 | P-Mass               | 0.00 | 1.2E-02 | 9.8E-02 |  8.5  7.9E-02  OK|
 +----------------------+------+---------+---------+------------------+
 | H-Energy             | 0.00 | 4.4E-02 | 5.1E-01 |  5.3  5.0E-03  OK|
 +----------------------+------+---------+---------+------------------+
 | K-TurbKE             | 0.00 | 1.5E-01 | 1.0E+00 |  5.3  3.1E-04  OK|
 | E-Diss.K             | 0.00 | 1.4E-01 | 1.0E+00 | 10.9  5.1E-08  OK|
 +----------------------+------+---------+---------+------------------+

 ======================================================================
 OUTER LOOP ITERATION =    2                    CPU SECONDS = 1.794E+00
 ----------------------------------------------------------------------
 |       Equation       | Rate | RMS Res | Max Res |  Linear Solution |
 +----------------------+------+---------+---------+------------------+
 | U-Mom                |99.99 | 7.2E-03 | 5.2E-02 |       4.2E-02  OK|
 | V-Mom                |99.99 | 1.7E-02 | 1.4E-01 |       7.4E-03  OK|
 | W-Mom                | 1.25 | 2.0E-02 | 7.4E-02 |       4.5E-02  OK|
 | P-Mass               | 0.66 | 8.0E-03 | 1.1E-01 |  8.5  4.0E-02  OK|
 +----------------------+------+---------+---------+------------------+
 | H-Energy             | 0.47 | 2.1E-02 | 8.0E-02 |  5.4  2.7E-02  OK|
 +----------------------+------+---------+---------+------------------+
 | K-TurbKE             | 1.00 | 1.5E-01 | 1.0E+00 |  5.4  1.7E-05  OK|
 | E-Diss.K             | 5.90 | 8.5E-01 | 9.3E+00 | 10.9  2.5E-08  OK|
 +----------------------+------+---------+---------+------------------+

 ======================================================================
 OUTER LOOP ITERATION =    3                    CPU SECONDS = 1.981E+00
 ----------------------------------------------------------------------
 |       Equation       | Rate | RMS Res | Max Res |  Linear Solution |
 +----------------------+------+---------+---------+------------------+
 | U-Mom                | 0.94 | 6.8E-03 | 2.8E-02 |       3.3E-02  OK|
 | V-Mom                | 1.19 | 2.1E-02 | 8.6E-02 |       8.1E-03  OK|
 | W-Mom                | 0.80 | 1.6E-02 | 9.4E-02 |       3.6E-02  OK|
 | P-Mass               | 0.76 | 6.1E-03 | 7.4E-02 |  8.5  5.4E-02  OK|
 +----------------------+------+---------+---------+------------------+
 | H-Energy             | 1.35 | 2.8E-02 | 1.4E-01 |  5.4  2.6E-02  OK|
 +----------------------+------+---------+---------+------------------+
 | K-TurbKE             | 0.15 | 2.3E-02 | 1.9E-01 |  5.4  3.6E-03  OK|
 | E-Diss.K             | 0.02 | 2.1E-02 | 3.7E-01 | 11.0  2.3E-08  OK|
 +----------------------+------+---------+---------+------------------+

 ======================================================================
 OUTER LOOP ITERATION =    4                    CPU SECONDS = 2.168E+00
 ----------------------------------------------------------------------
 |       Equation       | Rate | RMS Res | Max Res |  Linear Solution |
 +----------------------+------+---------+---------+------------------+
 | U-Mom                | 0.97 | 6.6E-03 | 5.8E-02 |       1.4E-02  OK|
 | V-Mom                | 0.89 | 1.8E-02 | 1.1E-01 |       5.9E-03  OK|
 | W-Mom                | 0.43 | 6.8E-03 | 3.7E-02 |       1.4E-02  OK|
 | P-Mass               | 0.69 | 4.2E-03 | 5.4E-02 |  8.5  2.5E-02  OK|
 +----------------------+------+---------+---------+------------------+
 | H-Energy             | 0.98 | 2.7E-02 | 9.0E-02 |  5.4  3.9E-02  OK|
 +----------------------+------+---------+---------+------------------+
 | K-TurbKE             | 0.65 | 1.5E-02 | 1.0E-01 |  5.4  8.1E-03  OK|
 | E-Diss.K             | 0.36 | 7.4E-03 | 6.2E-02 | 11.0  6.5E-07  OK|
 +----------------------+------+---------+---------+------------------+

 ======================================================================
 OUTER LOOP ITERATION =    5                    CPU SECONDS = 2.355E+00
 ----------------------------------------------------------------------
 |       Equation       | Rate | RMS Res | Max Res |  Linear Solution |
 +----------------------+------+---------+---------+------------------+
 | U-Mom                | 0.94 | 6.2E-03 | 3.1E-02 |       1.9E-02  OK|
 | V-Mom                | 0.92 | 1.7E-02 | 1.2E-01 |       6.6E-03  OK|
 | W-Mom                | 0.65 | 4.5E-03 | 3.3E-02 |       1.9E-02  OK|
 | P-Mass               | 0.56 | 2.3E-03 | 2.7E-02 |  8.5  2.5E-02  OK|
 +----------------------+------+---------+---------+------------------+
 | H-Energy             | 1.09 | 3.0E-02 | 2.0E-01 |  5.4  4.4E-02  OK|
 +----------------------+------+---------+---------+------------------+
 | K-TurbKE             | 0.52 | 7.6E-03 | 6.4E-02 |  5.4  6.4E-03  OK|
 | E-Diss.K             | 0.62 | 4.6E-03 | 4.5E-02 | 11.0  3.3E-07  OK|
 +----------------------+------+---------+---------+------------------+

 ======================================================================
 OUTER LOOP ITERATION =    6                    CPU SECONDS = 2.542E+00
 ----------------------------------------------------------------------
 |       Equation       | Rate | RMS Res | Max Res |  Linear Solution |
 +----------------------+------+---------+---------+------------------+
 | U-Mom                | 0.91 | 5.7E-03 | 3.7E-02 |       2.7E-02  OK|
 | V-Mom                | 0.80 | 1.3E-02 | 1.0E-01 |       1.3E-02  OK|
 | W-Mom                | 0.64 | 2.9E-03 | 2.0E-02 |       2.7E-02  OK|
 | P-Mass               | 0.63 | 1.5E-03 | 1.3E-02 |  8.5  3.9E-02  OK|
 +----------------------+------+---------+---------+------------------+
 | H-Energy             | 0.90 | 2.7E-02 | 1.5E-01 |  5.4  4.7E-02  OK|
 +----------------------+------+---------+---------+------------------+
 | K-TurbKE             | 0.72 | 5.5E-03 | 4.1E-02 |  5.4  1.0E-02  OK|
 | E-Diss.K             | 0.80 | 3.6E-03 | 3.8E-02 | 11.0  8.9E-07  OK|
 +----------------------+------+---------+---------+------------------+

 ======================================================================
 OUTER LOOP ITERATION =    7                    CPU SECONDS = 2.730E+00
 ----------------------------------------------------------------------
 |       Equation       | Rate | RMS Res | Max Res |  Linear Solution |
 +----------------------+------+---------+---------+------------------+
 | U-Mom                | 0.86 | 4.9E-03 | 2.9E-02 |       2.7E-02  OK|
 | V-Mom                | 0.59 | 8.0E-03 | 5.4E-02 |       1.7E-02  OK|
 | W-Mom                | 0.73 | 2.1E-03 | 2.4E-02 |       2.4E-02  OK|
 | P-Mass               | 0.72 | 1.1E-03 | 9.1E-03 |  8.5  2.9E-02  OK|
 +----------------------+------+---------+---------+------------------+
 | H-Energy             | 0.75 | 2.0E-02 | 1.3E-01 |  5.4  5.1E-02  OK|
 +----------------------+------+---------+---------+------------------+
 | K-TurbKE             | 0.87 | 4.8E-03 | 4.0E-02 |  5.4  1.5E-02  OK|
 | E-Diss.K             | 0.96 | 3.5E-03 | 3.7E-02 | 10.9  4.4E-07  OK|
 +----------------------+------+---------+---------+------------------+

 ======================================================================
 OUTER LOOP ITERATION =    8                    CPU SECONDS = 2.901E+00
 ----------------------------------------------------------------------
 |       Equation       | Rate | RMS Res | Max Res |  Linear Solution |
 +----------------------+------+---------+---------+------------------+
 | U-Mom                | 0.85 | 4.2E-03 | 3.0E-02 |       2.6E-02  OK|
 | V-Mom                | 0.58 | 4.7E-03 | 3.5E-02 |       2.1E-02  OK|
 | W-Mom                | 0.71 | 1.5E-03 | 9.9E-03 |       2.1E-02  OK|
 | P-Mass               | 0.74 | 7.9E-04 | 6.2E-03 |  8.5  2.2E-02  OK|
 +----------------------+------+---------+---------+------------------+
 | H-Energy             | 0.72 | 1.4E-02 | 1.3E-01 |  5.3  6.1E-02  OK|
 +----------------------+------+---------+---------+------------------+
 | K-TurbKE             | 0.90 | 4.3E-03 | 2.9E-02 |  5.3  1.8E-02  OK|
 | E-Diss.K             | 0.98 | 3.4E-03 | 3.6E-02 | 10.9  5.0E-07  OK|
 +----------------------+------+---------+---------+------------------+

 ======================================================================
 OUTER LOOP ITERATION =    9                    CPU SECONDS = 3.088E+00
 ----------------------------------------------------------------------
 |       Equation       | Rate | RMS Res | Max Res |  Linear Solution |
 +----------------------+------+---------+---------+------------------+
 | U-Mom                | 0.84 | 3.5E-03 | 2.5E-02 |       2.8E-02  OK|
 | V-Mom                | 0.77 | 3.6E-03 | 2.7E-02 |       2.4E-02  OK|
 | W-Mom                | 0.77 | 1.1E-03 | 8.7E-03 |       2.3E-02  OK|
 | P-Mass               | 0.81 | 6.4E-04 | 4.3E-03 |  8.5  2.3E-02  OK|
 +----------------------+------+---------+---------+------------------+
 | H-Energy             | 0.71 | 1.0E-02 | 1.5E-01 |  5.3  6.1E-02  OK|
 +----------------------+------+---------+---------+------------------+
 | K-TurbKE             | 0.88 | 3.8E-03 | 1.9E-02 |  5.3  1.5E-02  OK|
 | E-Diss.K             | 0.91 | 3.1E-03 | 3.1E-02 | 10.9  9.0E-07  OK|
 +----------------------+------+---------+---------+------------------+

 ======================================================================
 OUTER LOOP ITERATION =   10                    CPU SECONDS = 3.276E+00
 ----------------------------------------------------------------------
 |       Equation       | Rate | RMS Res | Max Res |  Linear Solution |
 +----------------------+------+---------+---------+------------------+
 | U-Mom                | 0.84 | 2.9E-03 | 3.0E-02 |       3.1E-02  OK|
 | V-Mom                | 0.87 | 3.1E-03 | 3.2E-02 |       2.8E-02  OK|
 | W-Mom                | 0.81 | 9.2E-04 | 1.0E-02 |       2.5E-02  OK|
 | P-Mass               | 0.94 | 6.0E-04 | 3.9E-03 |  8.5  2.5E-02  OK|
 +----------------------+------+---------+---------+------------------+
 | H-Energy             | 0.70 | 7.1E-03 | 1.2E-01 |  5.4  5.7E-02  OK|
 +----------------------+------+---------+---------+------------------+
 | K-TurbKE             | 0.88 | 3.3E-03 | 1.8E-02 |  5.4  1.5E-02  OK|
 | E-Diss.K             | 0.83 | 2.6E-03 | 2.5E-02 | 10.9  6.1E-07  OK|
 +----------------------+------+---------+---------+------------------+

 ======================================================================
 OUTER LOOP ITERATION =   11                    CPU SECONDS = 3.447E+00
 ----------------------------------------------------------------------
 |       Equation       | Rate | RMS Res | Max Res |  Linear Solution |
 +----------------------+------+---------+---------+------------------+
 | U-Mom                | 0.82 | 2.4E-03 | 2.5E-02 |       3.4E-02  OK|
 | V-Mom                | 0.86 | 2.7E-03 | 2.7E-02 |       3.0E-02  OK|
 | W-Mom                | 0.82 | 7.6E-04 | 7.5E-03 |       2.7E-02  OK|
 | P-Mass               | 0.97 | 5.8E-04 | 4.3E-03 |  8.5  2.7E-02  OK|
 +----------------------+------+---------+---------+------------------+
 | H-Energy             | 0.67 | 4.8E-03 | 8.0E-02 |  5.3  5.4E-02  OK|
 +----------------------+------+---------+---------+------------------+
 | K-TurbKE             | 0.88 | 2.9E-03 | 1.8E-02 |  5.3  8.0E-03  OK|
 | E-Diss.K             | 0.79 | 2.1E-03 | 1.9E-02 | 10.9  7.7E-07  OK|
 +----------------------+------+---------+---------+------------------+

 ======================================================================
 OUTER LOOP ITERATION =   12                    CPU SECONDS = 3.634E+00
 ----------------------------------------------------------------------
 |       Equation       | Rate | RMS Res | Max Res |  Linear Solution |
 +----------------------+------+---------+---------+------------------+
 | U-Mom                | 0.82 | 2.0E-03 | 2.0E-02 |       3.6E-02  OK|
 | V-Mom                | 0.84 | 2.3E-03 | 2.6E-02 |       3.3E-02  OK|
 | W-Mom                | 0.83 | 6.3E-04 | 6.4E-03 |       2.9E-02  OK|
 | P-Mass               | 0.94 | 5.5E-04 | 4.1E-03 |  8.5  2.9E-02  OK|
 +----------------------+------+---------+---------+------------------+
 | H-Energy             | 0.63 | 3.0E-03 | 4.6E-02 |  5.3  5.1E-02  OK|
 +----------------------+------+---------+---------+------------------+
 | K-TurbKE             | 0.88 | 2.6E-03 | 1.6E-02 |  5.3  4.1E-03  OK|
 | E-Diss.K             | 0.81 | 1.7E-03 | 1.4E-02 | 10.9  8.5E-07  OK|
 +----------------------+------+---------+---------+------------------+

 ======================================================================
 OUTER LOOP ITERATION =   13                    CPU SECONDS = 3.806E+00
 ----------------------------------------------------------------------
 |       Equation       | Rate | RMS Res | Max Res |  Linear Solution |
 +----------------------+------+---------+---------+------------------+
 | U-Mom                | 0.82 | 1.6E-03 | 1.6E-02 |       3.8E-02  OK|
 | V-Mom                | 0.82 | 1.9E-03 | 2.1E-02 |       3.4E-02  OK|
 | W-Mom                | 0.83 | 5.3E-04 | 6.4E-03 |       3.1E-02  OK|
 | P-Mass               | 0.91 | 5.0E-04 | 3.6E-03 |  8.5  3.1E-02  OK|
 +----------------------+------+---------+---------+------------------+
 | H-Energy             | 0.63 | 1.9E-03 | 1.7E-02 |  5.3  4.9E-02  OK|
 +----------------------+------+---------+---------+------------------+
 | K-TurbKE             | 0.89 | 2.3E-03 | 1.6E-02 |  5.3  2.4E-03  OK|
 | E-Diss.K             | 0.84 | 1.4E-03 | 1.1E-02 | 10.9  1.4E-06  OK|
 +----------------------+------+---------+---------+------------------+

 ======================================================================
 OUTER LOOP ITERATION =   14                    CPU SECONDS = 3.993E+00
 ----------------------------------------------------------------------
 |       Equation       | Rate | RMS Res | Max Res |  Linear Solution |
 +----------------------+------+---------+---------+------------------+
 | U-Mom                | 0.82 | 1.3E-03 | 1.2E-02 |       3.9E-02  OK|
 | V-Mom                | 0.82 | 1.5E-03 | 1.5E-02 |       3.6E-02  OK|
 | W-Mom                | 0.82 | 4.3E-04 | 5.1E-03 |       3.4E-02  OK|
 | P-Mass               | 0.89 | 4.4E-04 | 3.2E-03 |  8.5  3.3E-02  OK|
 +----------------------+------+---------+---------+------------------+
 | H-Energy             | 0.67 | 1.3E-03 | 8.8E-03 |  5.3  4.8E-02  OK|
 +----------------------+------+---------+---------+------------------+
 | K-TurbKE             | 0.88 | 2.0E-03 | 1.5E-02 |  5.3  2.6E-03  OK|
 | E-Diss.K             | 0.87 | 1.2E-03 | 8.6E-03 | 10.9  1.6E-06  OK|
 +----------------------+------+---------+---------+------------------+

 ======================================================================
 OUTER LOOP ITERATION =   15                    CPU SECONDS = 4.165E+00
 ----------------------------------------------------------------------
 |       Equation       | Rate | RMS Res | Max Res |  Linear Solution |
 +----------------------+------+---------+---------+------------------+
 | U-Mom                | 0.82 | 1.1E-03 | 8.9E-03 |       4.0E-02  OK|
 | V-Mom                | 0.82 | 1.2E-03 | 1.1E-02 |       3.7E-02  OK|
 | W-Mom                | 0.82 | 3.5E-04 | 3.7E-03 |       3.7E-02  OK|
 | P-Mass               | 0.88 | 3.9E-04 | 2.8E-03 |  8.5  3.5E-02  OK|
 +----------------------+------+---------+---------+------------------+
 | H-Energy             | 0.74 | 9.4E-04 | 7.9E-03 |  5.3  5.3E-02  OK|
 +----------------------+------+---------+---------+------------------+
 | K-TurbKE             | 0.88 | 1.8E-03 | 1.4E-02 |  5.3  2.9E-03  OK|
 | E-Diss.K             | 0.89 | 1.1E-03 | 8.2E-03 | 10.9  1.7E-06  OK|
 +----------------------+------+---------+---------+------------------+

 ======================================================================
 OUTER LOOP ITERATION =   16                    CPU SECONDS = 4.352E+00
 ----------------------------------------------------------------------
 |       Equation       | Rate | RMS Res | Max Res |  Linear Solution |
 +----------------------+------+---------+---------+------------------+
 | U-Mom                | 0.83 | 8.9E-04 | 6.4E-03 |       4.1E-02  OK|
 | V-Mom                | 0.83 | 1.0E-03 | 7.3E-03 |       3.8E-02  OK|
 | W-Mom                | 0.82 | 2.9E-04 | 2.5E-03 |       4.0E-02  OK|
 | P-Mass               | 0.87 | 3.4E-04 | 2.3E-03 |  8.5  3.6E-02  OK|
 +----------------------+------+---------+---------+------------------+
 | H-Energy             | 0.80 | 7.5E-04 | 7.0E-03 |  5.3  5.2E-02  OK|
 +----------------------+------+---------+---------+------------------+
 | K-TurbKE             | 0.87 | 1.5E-03 | 1.3E-02 |  5.3  3.1E-03  OK|
 | E-Diss.K             | 0.89 | 9.7E-04 | 7.5E-03 | 10.9  1.6E-06  OK|
 +----------------------+------+---------+---------+------------------+

 ======================================================================
 OUTER LOOP ITERATION =   17                    CPU SECONDS = 4.524E+00
 ----------------------------------------------------------------------
 |       Equation       | Rate | RMS Res | Max Res |  Linear Solution |
 +----------------------+------+---------+---------+------------------+
 | U-Mom                | 0.83 | 7.4E-04 | 4.6E-03 |       4.2E-02  OK|
 | V-Mom                | 0.84 | 8.6E-04 | 5.1E-03 |       3.9E-02  OK|
 | W-Mom                | 0.82 | 2.4E-04 | 1.8E-03 |       4.3E-02  OK|
 | P-Mass               | 0.86 | 2.9E-04 | 1.9E-03 |  8.5  3.7E-02  OK|
 +----------------------+------+---------+---------+------------------+
 | H-Energy             | 0.83 | 6.2E-04 | 6.2E-03 |  5.3  5.2E-02  OK|
 +----------------------+------+---------+---------+------------------+
 | K-TurbKE             | 0.87 | 1.3E-03 | 1.1E-02 |  5.3  3.3E-03  OK|
 | E-Diss.K             | 0.89 | 8.6E-04 | 6.6E-03 | 10.9  1.9E-06  OK|
 +----------------------+------+---------+---------+------------------+

 ======================================================================
 OUTER LOOP ITERATION =   18                    CPU SECONDS = 4.695E+00
 ----------------------------------------------------------------------
 |       Equation       | Rate | RMS Res | Max Res |  Linear Solution |
 +----------------------+------+---------+---------+------------------+
 | U-Mom                | 0.84 | 6.2E-04 | 3.4E-03 |       4.3E-02  OK|
 | V-Mom                | 0.85 | 7.2E-04 | 3.6E-03 |       4.0E-02  OK|
 | W-Mom                | 0.82 | 2.0E-04 | 1.5E-03 |       4.6E-02  OK|
 | P-Mass               | 0.86 | 2.5E-04 | 1.6E-03 |  8.5  3.8E-02  OK|
 +----------------------+------+---------+---------+------------------+
 | H-Energy             | 0.84 | 5.2E-04 | 5.4E-03 |  5.4  5.2E-02  OK|
 +----------------------+------+---------+---------+------------------+
 | K-TurbKE             | 0.87 | 1.2E-03 | 8.9E-03 |  5.4  3.3E-03  OK|
 | E-Diss.K             | 0.89 | 7.6E-04 | 5.8E-03 | 10.9  2.2E-06  OK|
 +----------------------+------+---------+---------+------------------+

 ======================================================================
 OUTER LOOP ITERATION =   19                    CPU SECONDS = 4.882E+00
 ----------------------------------------------------------------------
 |       Equation       | Rate | RMS Res | Max Res |  Linear Solution |
 +----------------------+------+---------+---------+------------------+
 | U-Mom                | 0.85 | 5.2E-04 | 2.5E-03 |       4.4E-02  OK|
 | V-Mom                | 0.85 | 6.2E-04 | 3.0E-03 |       4.0E-02  OK|
 | W-Mom                | 0.83 | 1.6E-04 | 1.2E-03 |       5.0E-02  OK|
 | P-Mass               | 0.86 | 2.1E-04 | 1.4E-03 |  8.5  3.9E-02  OK|
 +----------------------+------+---------+---------+------------------+
 | H-Energy             | 0.84 | 4.4E-04 | 4.7E-03 |  5.3  5.1E-02  OK|
 +----------------------+------+---------+---------+------------------+
 | K-TurbKE             | 0.87 | 1.0E-03 | 7.3E-03 |  5.3  3.4E-03  OK|
 | E-Diss.K             | 0.88 | 6.8E-04 | 5.0E-03 | 10.9  2.1E-06  OK|
 +----------------------+------+---------+---------+------------------+

 ======================================================================
 OUTER LOOP ITERATION =   20                    CPU SECONDS = 5.070E+00
 ----------------------------------------------------------------------
 |       Equation       | Rate | RMS Res | Max Res |  Linear Solution |
 +----------------------+------+---------+---------+------------------+
 | U-Mom                | 0.85 | 4.5E-04 | 1.8E-03 |       4.5E-02  OK|
 | V-Mom                | 0.86 | 5.3E-04 | 2.7E-03 |       4.1E-02  OK|
 | W-Mom                | 0.83 | 1.3E-04 | 9.4E-04 |       5.2E-02  OK|
 | P-Mass               | 0.86 | 1.9E-04 | 1.2E-03 |  8.5  3.9E-02  OK|
 +----------------------+------+---------+---------+------------------+
 | H-Energy             | 0.84 | 3.7E-04 | 4.0E-03 |  5.3  5.0E-02  OK|
 +----------------------+------+---------+---------+------------------+
 | K-TurbKE             | 0.87 | 8.8E-04 | 6.0E-03 |  5.3  3.3E-03  OK|
 | E-Diss.K             | 0.88 | 6.0E-04 | 4.3E-03 | 10.9  2.3E-06  OK|
 +----------------------+------+---------+---------+------------------+

 ======================================================================
 OUTER LOOP ITERATION =   21                    CPU SECONDS = 5.241E+00
 ----------------------------------------------------------------------
 |       Equation       | Rate | RMS Res | Max Res |  Linear Solution |
 +----------------------+------+---------+---------+------------------+
 | U-Mom                | 0.86 | 3.8E-04 | 1.4E-03 |       4.5E-02  OK|
 | V-Mom                | 0.86 | 4.5E-04 | 2.3E-03 |       4.1E-02  OK|
 | W-Mom                | 0.84 | 1.1E-04 | 7.6E-04 |       5.5E-02  OK|
 | P-Mass               | 0.86 | 1.6E-04 | 9.9E-04 |  8.5  4.0E-02  OK|
 +----------------------+------+---------+---------+------------------+
 | H-Energy             | 0.85 | 3.1E-04 | 3.5E-03 |  5.3  5.0E-02  OK|
 +----------------------+------+---------+---------+------------------+
 | K-TurbKE             | 0.87 | 7.7E-04 | 4.9E-03 |  5.3  3.1E-03  OK|
 | E-Diss.K             | 0.88 | 5.3E-04 | 3.7E-03 | 10.9  2.5E-06  OK|
 +----------------------+------+---------+---------+------------------+

 ======================================================================
 OUTER LOOP ITERATION =   22                    CPU SECONDS = 5.428E+00
 ----------------------------------------------------------------------
 |       Equation       | Rate | RMS Res | Max Res |  Linear Solution |
 +----------------------+------+---------+---------+------------------+
 | U-Mom                | 0.86 | 3.3E-04 | 1.2E-03 |       4.6E-02  OK|
 | V-Mom                | 0.86 | 3.9E-04 | 2.1E-03 |       4.2E-02  OK|
 | W-Mom                | 0.84 | 9.5E-05 | 6.2E-04 |       5.8E-02  OK|
 | P-Mass               | 0.87 | 1.4E-04 | 8.4E-04 |  8.5  4.0E-02  OK|
 +----------------------+------+---------+---------+------------------+
 | H-Energy             | 0.85 | 2.7E-04 | 3.1E-03 |  5.3  5.0E-02  OK|
 +----------------------+------+---------+---------+------------------+
 | K-TurbKE             | 0.87 | 6.7E-04 | 4.0E-03 |  5.3  3.1E-03  OK|
 | E-Diss.K             | 0.88 | 4.7E-04 | 3.2E-03 | 10.9  2.4E-06  OK|
 +----------------------+------+---------+---------+------------------+

 ======================================================================
 OUTER LOOP ITERATION =   23                    CPU SECONDS = 5.600E+00
 ----------------------------------------------------------------------
 |       Equation       | Rate | RMS Res | Max Res |  Linear Solution |
 +----------------------+------+---------+---------+------------------+
 | U-Mom                | 0.86 | 2.8E-04 | 1.0E-03 |       4.6E-02  OK|
 | V-Mom                | 0.86 | 3.4E-04 | 1.8E-03 |       4.2E-02  OK|
 | W-Mom                | 0.84 | 8.0E-05 | 5.2E-04 |       6.0E-02  OK|
 | P-Mass               | 0.87 | 1.2E-04 | 7.2E-04 |  8.5  4.1E-02  OK|
 +----------------------+------+---------+---------+------------------+
 | H-Energy             | 0.85 | 2.3E-04 | 2.7E-03 |  5.3  5.0E-02  OK|
 +----------------------+------+---------+---------+------------------+
 | K-TurbKE             | 0.87 | 5.8E-04 | 3.3E-03 |  5.3  3.1E-03  OK|
 | E-Diss.K             | 0.88 | 4.1E-04 | 2.8E-03 | 10.9  2.6E-06  OK|
 +----------------------+------+---------+---------+------------------+

 ======================================================================
 OUTER LOOP ITERATION =   24                    CPU SECONDS = 5.772E+00
 ----------------------------------------------------------------------
 |       Equation       | Rate | RMS Res | Max Res |  Linear Solution |
 +----------------------+------+---------+---------+------------------+
 | U-Mom                | 0.86 | 2.5E-04 | 9.6E-04 |       4.7E-02  OK|
 | V-Mom                | 0.87 | 2.9E-04 | 1.6E-03 |       4.3E-02  OK|
 | W-Mom                | 0.85 | 6.8E-05 | 4.4E-04 |       6.2E-02  OK|
 | P-Mass               | 0.87 | 1.0E-04 | 6.1E-04 |  8.5  4.1E-02  OK|
 +----------------------+------+---------+---------+------------------+
 | H-Energy             | 0.86 | 1.9E-04 | 2.3E-03 |  5.3  4.9E-02  OK|
 +----------------------+------+---------+---------+------------------+
 | K-TurbKE             | 0.87 | 5.0E-04 | 2.8E-03 |  5.3  3.2E-03  OK|
 | E-Diss.K             | 0.88 | 3.6E-04 | 2.4E-03 | 10.9  2.7E-06  OK|
 +----------------------+------+---------+---------+------------------+

 ======================================================================
 OUTER LOOP ITERATION =   25                    CPU SECONDS = 5.959E+00
 ----------------------------------------------------------------------
 |       Equation       | Rate | RMS Res | Max Res |  Linear Solution |
 +----------------------+------+---------+---------+------------------+
 | U-Mom                | 0.87 | 2.1E-04 | 8.7E-04 |       4.7E-02  OK|
 | V-Mom                | 0.87 | 2.5E-04 | 1.4E-03 |       4.3E-02  OK|
 | W-Mom                | 0.85 | 5.8E-05 | 3.8E-04 |       6.3E-02  OK|
 | P-Mass               | 0.87 | 9.0E-05 | 5.2E-04 |  8.5  4.1E-02  OK|
 +----------------------+------+---------+---------+------------------+
 | H-Energy             | 0.86 | 1.7E-04 | 2.0E-03 |  5.3  4.8E-02  OK|
 +----------------------+------+---------+---------+------------------+
 | K-TurbKE             | 0.87 | 4.4E-04 | 2.4E-03 |  5.3  3.1E-03  OK|
 | E-Diss.K             | 0.88 | 3.2E-04 | 2.1E-03 | 10.9  2.7E-06  OK|
 +----------------------+------+---------+---------+------------------+

 ======================================================================
 OUTER LOOP ITERATION =   26                    CPU SECONDS = 6.130E+00
 ----------------------------------------------------------------------
 |       Equation       | Rate | RMS Res | Max Res |  Linear Solution |
 +----------------------+------+---------+---------+------------------+
 | U-Mom                | 0.87 | 1.8E-04 | 7.7E-04 |       4.7E-02  OK|
 | V-Mom                | 0.87 | 2.2E-04 | 1.2E-03 |       4.3E-02  OK|
 | W-Mom                | 0.86 | 5.0E-05 | 3.3E-04 |       6.5E-02  OK|
 | P-Mass               | 0.87 | 7.9E-05 | 4.4E-04 |  8.5  4.2E-02  OK|
 +----------------------+------+---------+---------+------------------+
 | H-Energy             | 0.86 | 1.4E-04 | 1.8E-03 |  5.3  4.8E-02  OK|
 +----------------------+------+---------+---------+------------------+
 | K-TurbKE             | 0.87 | 3.8E-04 | 2.0E-03 |  5.3  3.2E-03  OK|
 | E-Diss.K             | 0.88 | 2.8E-04 | 1.9E-03 | 10.9  2.7E-06  OK|
 +----------------------+------+---------+---------+------------------+

 ======================================================================
 OUTER LOOP ITERATION =   27                    CPU SECONDS = 6.318E+00
 ----------------------------------------------------------------------
 |       Equation       | Rate | RMS Res | Max Res |  Linear Solution |
 +----------------------+------+---------+---------+------------------+
 | U-Mom                | 0.87 | 1.6E-04 | 6.5E-04 |       4.7E-02  OK|
 | V-Mom                | 0.87 | 1.9E-04 | 1.0E-03 |       4.3E-02  OK|
 | W-Mom                | 0.86 | 4.2E-05 | 2.8E-04 |       6.6E-02  OK|
 | P-Mass               | 0.87 | 6.8E-05 | 3.8E-04 |  8.5  4.2E-02  OK|
 +----------------------+------+---------+---------+------------------+
 | H-Energy             | 0.86 | 1.2E-04 | 1.5E-03 |  5.3  4.8E-02  OK|
 +----------------------+------+---------+---------+------------------+
 | K-TurbKE             | 0.87 | 3.3E-04 | 1.7E-03 |  5.3  3.3E-03  OK|
 | E-Diss.K             | 0.88 | 2.5E-04 | 1.7E-03 | 10.9  2.8E-06  OK|
 +----------------------+------+---------+---------+------------------+

 ======================================================================
 OUTER LOOP ITERATION =   28                    CPU SECONDS = 6.489E+00
 ----------------------------------------------------------------------
 |       Equation       | Rate | RMS Res | Max Res |  Linear Solution |
 +----------------------+------+---------+---------+------------------+
 | U-Mom                | 0.87 | 1.4E-04 | 5.5E-04 |       4.7E-02  OK|
 | V-Mom                | 0.87 | 1.7E-04 | 8.9E-04 |       4.4E-02  OK|
 | W-Mom                | 0.86 | 3.7E-05 | 2.5E-04 |       6.7E-02  OK|
 | P-Mass               | 0.87 | 5.9E-05 | 3.3E-04 |  8.5  4.2E-02  OK|
 +----------------------+------+---------+---------+------------------+
 | H-Energy             | 0.86 | 1.1E-04 | 1.3E-03 |  5.3  4.8E-02  OK|
 +----------------------+------+---------+---------+------------------+
 | K-TurbKE             | 0.87 | 2.9E-04 | 1.5E-03 |  5.3  3.4E-03  OK|
 | E-Diss.K             | 0.88 | 2.2E-04 | 1.5E-03 | 10.9  2.8E-06  OK|
 +----------------------+------+---------+---------+------------------+

 ======================================================================
 OUTER LOOP ITERATION =   29                    CPU SECONDS = 6.676E+00
 ----------------------------------------------------------------------
 |       Equation       | Rate | RMS Res | Max Res |  Linear Solution |
 +----------------------+------+---------+---------+------------------+
 | U-Mom                | 0.87 | 1.2E-04 | 4.8E-04 |       4.8E-02  OK|
 | V-Mom                | 0.87 | 1.4E-04 | 7.8E-04 |       4.4E-02  OK|
 | W-Mom                | 0.86 | 3.1E-05 | 2.1E-04 |       6.8E-02  OK|
 | P-Mass               | 0.87 | 5.2E-05 | 2.9E-04 |  8.5  4.2E-02  OK|
 +----------------------+------+---------+---------+------------------+
 | H-Energy             | 0.87 | 9.3E-05 | 1.1E-03 |  5.3  4.8E-02  OK|
 +----------------------+------+---------+---------+------------------+
 | K-TurbKE             | 0.87 | 2.5E-04 | 1.3E-03 |  5.3  3.4E-03  OK|
 | E-Diss.K             | 0.88 | 1.9E-04 | 1.3E-03 | 10.9  3.1E-06  OK|
 +----------------------+------+---------+---------+------------------+

 ======================================================================
 OUTER LOOP ITERATION =   30                    CPU SECONDS = 6.848E+00
 ----------------------------------------------------------------------
 |       Equation       | Rate | RMS Res | Max Res |  Linear Solution |
 +----------------------+------+---------+---------+------------------+
 | U-Mom                | 0.87 | 1.1E-04 | 4.1E-04 |       4.8E-02  OK|
 | V-Mom                | 0.87 | 1.3E-04 | 6.7E-04 |       4.4E-02  OK|
 | W-Mom                | 0.86 | 2.7E-05 | 1.8E-04 |       6.9E-02  OK|
 | P-Mass               | 0.87 | 4.5E-05 | 2.5E-04 |  8.5  4.2E-02  OK|
 +----------------------+------+---------+---------+------------------+
 | H-Energy             | 0.87 | 8.1E-05 | 9.7E-04 |  5.3  4.8E-02  OK|
 +----------------------+------+---------+---------+------------------+
 | K-TurbKE             | 0.87 | 2.2E-04 | 1.1E-03 |  5.3  3.4E-03  OK|
 | E-Diss.K             | 0.88 | 1.7E-04 | 1.1E-03 | 10.9  3.2E-06  OK|
 +----------------------+------+---------+---------+------------------+

 ======================================================================
 OUTER LOOP ITERATION =   31                    CPU SECONDS = 7.020E+00
 ----------------------------------------------------------------------
 |       Equation       | Rate | RMS Res | Max Res |  Linear Solution |
 +----------------------+------+---------+---------+------------------+
 | U-Mom                | 0.87 | 9.2E-05 | 3.6E-04 |       4.8E-02  OK|
 | V-Mom                | 0.87 | 1.1E-04 | 5.7E-04 |       4.4E-02  OK|
 | W-Mom                | 0.87 | 2.4E-05 | 1.6E-04 |       7.0E-02  OK|
 | P-Mass               | 0.87 | 3.9E-05 | 2.1E-04 |  8.5  4.2E-02  OK|
 +----------------------+------+---------+---------+------------------+
 | H-Energy             | 0.87 | 7.0E-05 | 8.5E-04 |  5.3  4.8E-02  OK|
 +----------------------+------+---------+---------+------------------+
 | K-TurbKE             | 0.87 | 1.9E-04 | 9.9E-04 |  5.3  3.4E-03  OK|
 | E-Diss.K             | 0.88 | 1.5E-04 | 9.8E-04 | 10.9  3.2E-06  OK|
 +----------------------+------+---------+---------+------------------+

 ======================================================================
 OUTER LOOP ITERATION =   32                    CPU SECONDS = 7.207E+00
 ----------------------------------------------------------------------
 |       Equation       | Rate | RMS Res | Max Res |  Linear Solution |
 +----------------------+------+---------+---------+------------------+
 | U-Mom                | 0.87 | 8.0E-05 | 3.1E-04 |       4.8E-02  OK|
 | V-Mom                | 0.87 | 9.5E-05 | 5.0E-04 |       4.4E-02  OK|
 | W-Mom                | 0.87 | 2.0E-05 | 1.4E-04 |       7.1E-02  OK|
 | P-Mass               | 0.87 | 3.4E-05 | 1.8E-04 |  8.5  4.2E-02  OK|
 +----------------------+------+---------+---------+------------------+
 | H-Energy             | 0.87 | 6.1E-05 | 7.4E-04 |  5.3  4.8E-02  OK|
 +----------------------+------+---------+---------+------------------+
 | K-TurbKE             | 0.87 | 1.7E-04 | 8.6E-04 |  5.3  3.4E-03  OK|
 | E-Diss.K             | 0.88 | 1.3E-04 | 8.6E-04 | 10.9  3.1E-06  OK|
 +----------------------+------+---------+---------+------------------+
                   
 CFD Solver finished: Thu Oct 06 14:09:21 2016
 CFD Solver wall clock seconds: 5.8030E+00

 ======================================================================
              Termination and Interrupt Condition Summary
 ======================================================================
    
 CFD Solver: All target criteria reached
   (Equation residuals)

 ======================================================================
              Boundary Flow and Total Source Term Summary
 ======================================================================

 +--------------------------------------------------------------------+
 |                               U-Mom                                |
 +--------------------------------------------------------------------+
 Boundary         : Default Domain Default                  4.0129E+01
 Boundary         : in1                                    -5.0082E-05
 Boundary         : in2                                     4.3108E-05
 Boundary         : out                                    -3.9546E+01
                                                           -----------
 Domain Imbalance :                                         5.8313E-01

 +--------------------------------------------------------------------+
 |                               V-Mom                                |
 +--------------------------------------------------------------------+
 Boundary         : Default Domain Default                  3.0553E+00
 Boundary         : in1                                     1.1688E+04
 Boundary         : in2                                    -1.1675E+04
 Boundary         : out                                    -1.5888E+01
                                                           -----------
 Domain Imbalance :                                        -3.0178E-01

 +--------------------------------------------------------------------+
 |                               W-Mom                                |
 +--------------------------------------------------------------------+
 Boundary         : Default Domain Default                 -1.0939E+04
 Boundary         : in1                                     1.1851E-05
 Boundary         : in2                                     2.6498E-05
 Boundary         : out                                     1.0941E+04
                                                           -----------
 Domain Imbalance :                                         1.6719E+00

 +--------------------------------------------------------------------+
 |                               P-Mass                               |
 +--------------------------------------------------------------------+
 Boundary         : in1                                     1.4100E+03
 Boundary         : in2                                     1.4100E+03
 Boundary         : out                                    -2.8199E+03
                                                           -----------
 Domain Imbalance :                                         5.6641E-02

 +--------------------------------------------------------------------+
 |                              H-Energy                              |
 +--------------------------------------------------------------------+
 Boundary         : in1                                     9.9349E+07
 Boundary         : in2                                    -7.7533E+07
 Boundary         : out                                    -2.1797E+07
                                                           -----------
 Domain Imbalance :                                         1.8868E+04


 +--------------------------------------------------------------------+
 |                     Normalised Imbalance Summary                   |
 +--------------------------------------------------------------------+
 |       Equation       |      Maximum Flow     |     Imbalance (%)   |
 +--------------------------------------------------------------------+
 | U-Mom                |       1.1688E+04      |        0.0050       |
 | V-Mom                |       1.1688E+04      |       -0.0026       |
 | W-Mom                |       1.1688E+04      |        0.0143       |
 | P-Mass               |       2.8199E+03      |        0.0020       |
 +----------------------+-----------------------+---------------------+
 | H-Energy             |       9.9349E+07      |        0.0190       |
 +----------------------+-----------------------+---------------------+

 ======================================================================
                     Wall Force and Moment Summary
 ======================================================================
                                                                          
 Notes:
 1. Pressure integrals exclude the reference pressure.  To include
    it, set the expert parameter 'include pref in forces = t'.


 +--------------------------------------------------------------------+
 |                      Pressure Force On Walls                       |
 +--------------------------------------------------------------------+
                                    X-Comp.      Y-Comp.      Z-Comp.

 Domain Group: Default Domain

 Default Domain Default          -3.9901E+01  -2.0258E+00   1.0989E+04
                                  -----------  -----------  -----------
 Domain Group Totals :           -3.9901E+01  -2.0258E+00   1.0989E+04


 +--------------------------------------------------------------------+
 |                       Viscous Force On Walls                       |
 +--------------------------------------------------------------------+
                                    X-Comp.      Y-Comp.      Z-Comp.

 Domain Group: Default Domain

 Default Domain Default          -2.2634E-01  -1.0163E+00  -4.9929E+01
                                  -----------  -----------  -----------
 Domain Group Totals :           -2.2634E-01  -1.0163E+00  -4.9929E+01


 +--------------------------------------------------------------------+
 |                      Pressure Moment On Walls                      |
 +--------------------------------------------------------------------+
                                    X-Comp.      Y-Comp.      Z-Comp.

 Domain Group: Default Domain

 Default Domain Default          -2.8186E+00   8.9589E+01  -1.6672E+04
                                  -----------  -----------  -----------
 Domain Group Totals :           -2.8186E+00   8.9589E+01  -1.6672E+04


 +--------------------------------------------------------------------+
 |                       Viscous Moment On Walls                      |
 +--------------------------------------------------------------------+
                                    X-Comp.      Y-Comp.      Z-Comp.

 Domain Group: Default Domain

 Default Domain Default           6.4015E-01  -4.5823E-01  -2.4538E+02
                                  -----------  -----------  -----------
 Domain Group Totals :            6.4015E-01  -4.5823E-01  -2.4538E+02


 +--------------------------------------------------------------------+
 |                   Locations of Maximum Residuals                   |
 +--------------------------------------------------------------------+
 |       Equation       |      Domain Name      |     Node Number     |
 +--------------------------------------------------------------------+
 | U-Mom                | Default Domain        |             18      |
 | V-Mom                | Default Domain        |             18      |
 | W-Mom                | Default Domain        |            107      |
 | P-Mass               | Default Domain        |            487      |
 +----------------------+-----------------------+---------------------+
 | H-Energy             | Default Domain        |             18      |
 +----------------------+-----------------------+---------------------+
 | K-TurbKE             | Default Domain        |             84      |
 | E-Diss.K             | Default Domain        |             52      |
 +----------------------+-----------------------+---------------------+

 ======================================================================
 |                     False Transient Information                    |
 +--------------------------------------------------------------------+
 |       Equation       |         Type          | Elapsed Pseudo-Time |
 +--------------------------------------------------------------------+
 | U-Mom                | Physical Timescale    |     6.40000E+01     |
 | V-Mom                | Physical Timescale    |     6.40000E+01     |
 | W-Mom                | Physical Timescale    |     6.40000E+01     |
 +----------------------+-----------------------+---------------------+
 | H-Energy             | Physical Timescale    |     6.40000E+01     |
 +----------------------+-----------------------+---------------------+
 | K-TurbKE             | Physical Timescale    |     6.40000E+01     |
 | E-Diss.K             | Physical Timescale    |     6.40000E+01     |
 +----------------------+-----------------------+---------------------+

 +--------------------------------------------------------------------+
 |                     Average Scale Information                      |
 +--------------------------------------------------------------------+

 Domain Name : Default Domain
     Global Length                                         = 3.2143E+00
     Minimum Extent                                        = 4.0000E+00
     Maximum Extent                                        = 6.0000E+00
     Density                                               = 9.9700E+02
     Dynamic Viscosity                                     = 8.8990E-04
     Velocity                                              = 1.6195E+00
     Advection Time                                        = 1.9848E+00
     Reynolds Number                                       = 5.8319E+06
     Thermal Conductivity                                  = 6.0690E-01
     Specific Heat Capacity at Constant Pressure           = 4.1817E+03
     Prandtl Number                                        = 6.1316E+00
     Temperature Range                                     = 3.0000E+01

 +--------------------------------------------------------------------+
 |                     Variable Range Information                     |
 +--------------------------------------------------------------------+

 Domain Name : Default Domain
 +--------------------------------------------------------------------+
 |      Variable Name                         |    min    |    max    |
 +--------------------------------------------------------------------+
 | Density                                    |  9.97E+02 |  9.97E+02 |
 | Specific Heat Capacity at Constant Pressure|  4.18E+03 |  4.18E+03 |
 | Dynamic Viscosity                          |  8.90E-04 |  8.90E-04 |
 | Thermal Conductivity                       |  6.07E-01 |  6.07E-01 |
 | Static Entropy                             | -1.89E+02 |  2.30E+02 |
 | Velocity u                                 | -1.92E+00 |  1.90E+00 |
 | Velocity v                                 | -2.25E+00 |  2.30E+00 |
 | Velocity w                                 | -4.11E+00 |  2.85E-01 |
 | Pressure                                   | -8.83E+02 |  1.30E+04 |
 | Turbulence Kinetic Energy                  |  7.94E-04 |  3.56E-02 |
 | Turbulence Eddy Dissipation                |  4.63E-04 |  3.38E-01 |
 | Eddy Viscosity                             |  1.76E-03 |  9.66E-01 |
 | Temperature                                |  2.85E+02 |  3.15E+02 |
 | Static Enthalpy                            | -5.50E+04 |  7.05E+04 |
 +--------------------------------------------------------------------+

 +--------------------------------------------------------------------+
 |               CPU Requirements of Numerical Solution               |
 +--------------------------------------------------------------------+

 Subsystem Name                  Discretization       Linear Solution
                                (secs.   %total)     (secs.   %total) 
 ----------------------------------------------------------------------
 Momentum and Mass              2.28E+00  29.6 %     3.73E-01   4.8 %
 Heat Transfer                  8.13E-01  10.6 %     2.32E-01   3.0 %
 TurbKE and Diss.K              1.01E+00  13.1 %     5.79E-01   7.5 %
                                -------- -------     --------  ------
 Subsystem Summary              4.10E+00  53.3 %     1.18E+00  15.4 %

 Variable Updates               2.80E-01    3.6 %
 File Writing                   4.70E-02    0.6 %
 Miscellaneous                  2.09E+00   27.1 %
                                --------
 Total                          7.71E+00

 +--------------------------------------------------------------------+
 |                   Job Information at End of Run                    |
 +--------------------------------------------------------------------+

 Host computer:  D0003711 (PID:8144)

 Job finished:   Thu Oct 06 14:09:21 2016

 Total wall clock time: 7.691E+00 seconds
             or: (          0:         0:         0:     7.691 )
                 (       Days:     Hours:   Minutes:   Seconds )

End of solution stage.

 +--------------------------------------------------------------------+
 | The results from this run of the ANSYS CFX Solver have been        |
 | written to C:\Users\tapeltie\Documents\THFL_SIM\Tutorial           |
 | 2\StaticMixer_001.res                                              |
 +--------------------------------------------------------------------+


This run of the ANSYS CFX Solver has finished.
