/batch
*get,_wallstrt,active,,time,wall
! ANSYS input file written by Workbench version 17.1 RELEASE
! File used for geometry attach: C:\Users\tapeltie\Documents\Ansys\Aufgabe_4_files\dp0\SYS\DM\SYS.agdb
/title,Aufgabe_4--Statisch-mechanisch (A5)
*DIM,_wb_ProjectScratch_dir,string,248
_wb_ProjectScratch_dir(1) = 'C:\Users\tapeltie\Documents\Ansys\_ProjectScratch\Scr274\'
*DIM,_wb_SolverFiles_dir,string,248
_wb_SolverFiles_dir(1) = 'C:\Users\tapeltie\Documents\Ansys\Aufgabe_4_files\dp0\SYS\MECH\'
*DIM,_wb_userfiles_dir,string,248
_wb_userfiles_dir(1) = 'C:\Users\tapeltie\Documents\Ansys\Aufgabe_4_files\user_files\'
/com,--- Data in consistent NMM units. See Solving Units in the help system for more information.
/units,MPA
/nopr
/wb,file,start              !  signify a WB generated input file
/prep7
! Turn off shape checking because checks already performed inside WB mesher.
! See help system for more information.
SHPP,OFF,,NOWARN
/nolist
etcon,set             ! allow ANSYS to choose best KEYOP's for 180x elements
/com,*********** Nodes for the whole assembly ***********
nblock,3
(1i9,3e20.9e3)
        1    0.000000000E+000    0.000000000E+000    0.000000000E+000
        2    5.000000000E+002    0.000000000E+000    0.000000000E+000
        3    5.000000000E+001    0.000000000E+000    0.000000000E+000
        4    1.000000000E+002    0.000000000E+000    0.000000000E+000
        5    1.500000000E+002    0.000000000E+000    0.000000000E+000
        6    2.000000000E+002    0.000000000E+000    0.000000000E+000
        7    2.500000000E+002    0.000000000E+000    0.000000000E+000
        8    3.000000000E+002    0.000000000E+000    0.000000000E+000
        9    3.500000000E+002    0.000000000E+000    0.000000000E+000
       10    4.000000000E+002    0.000000000E+000    0.000000000E+000
       11    4.500000000E+002    0.000000000E+000    0.000000000E+000
       12    1.000000000E+003    0.000000000E+000    0.000000000E+000
       13    5.500000000E+002    0.000000000E+000    0.000000000E+000
       14    6.000000000E+002    0.000000000E+000    0.000000000E+000
       15    6.500000000E+002    0.000000000E+000    0.000000000E+000
       16    7.000000000E+002    0.000000000E+000    0.000000000E+000
       17    7.500000000E+002    0.000000000E+000    0.000000000E+000
       18    8.000000000E+002    0.000000000E+000    0.000000000E+000
       19    8.500000000E+002    0.000000000E+000    0.000000000E+000
       20    9.000000000E+002    0.000000000E+000    0.000000000E+000
! ... 39 like lines cut
/wb,elem,start            !  set before creation of elements
/com,*********** Elements for Body 1 "Linienk_rper" ***********
et,1,188
keyo,1,3,2
eblock,19,solid,,10
(19i9)
        1        1        1        1        0        0        0        0        3        0        1        1        3       30
        1        1        1        1        0        0        0        0        3        0        2        3        4       31
        1        1        1        1        0        0        0        0        3        0        3        4        5       32
        1        1        1        1        0        0        0        0        3        0        4        5        6       33
        1        1        1        1        0        0        0        0        3        0        5        6        7       34
        1        1        1        1        0        0        0        0        3        0        6        7        8       35
        1        1        1        1        0        0        0        0        3        0        7        8        9       36
        1        1        1        1        0        0        0        0        3        0        8        9       10       37
        1        1        1        1        0        0        0        0        3        0        9       10       11       38
        1        1        1        1        0        0        0        0        3        0       10       11        2       39
-1
!Material Id = {02B2F451-1094-4A30-9C5B-452EB2C51151}
/com,*********** Elements for Body 2 "Linienk_rper" ***********
et,2,188
keyo,2,3,2
eblock,19,solid,,10
(19i9)
        2        2        2        2        0        0        0        0        3        0       11        2       13       40
        2        2        2        2        0        0        0        0        3        0       12       13       14       41
        2        2        2        2        0        0        0        0        3        0       13       14       15       42
        2        2        2        2        0        0        0        0        3        0       14       15       16       43
        2        2        2        2        0        0        0        0        3        0       15       16       17       44
        2        2        2        2        0        0        0        0        3        0       16       17       18       45
        2        2        2        2        0        0        0        0        3        0       17       18       19       46
        2        2        2        2        0        0        0        0        3        0       18       19       20       47
        2        2        2        2        0        0        0        0        3        0       19       20       21       48
        2        2        2        2        0        0        0        0        3        0       29       21       58       49
-1
!Material Id = {7C5BBF4D-8F63-4187-9F37-3D09E02B90EA}
/com,*********** Elements for Body 3 "Linienk_rper" ***********
et,3,188
keyo,3,3,2
eblock,19,solid,,8
(19i9)
        3        3        3        3        0        0        0        0        3        0       21       22       23       50
        3        3        3        3        0        0        0        0        3        0       22       23       24       51
        3        3        3        3        0        0        0        0        3        0       23       24       25       52
        3        3        3        3        0        0        0        0        3        0       24       25       26       53
        3        3        3        3        0        0        0        0        3        0       25       26       27       54
        3        3        3        3        0        0        0        0        3        0       26       27       28       55
        3        3        3        3        0        0        0        0        3        0       27       28       29       56
        3        3        3        3        0        0        0        0        3        0       28       29       12       57
-1
!Material Id = {A2CB36F5-40C5-48E8-91C1-7CC8F7B5189A}
/wb,elem,end               !  done creating elements
/com,*********** Send User Defined Coordinate System(s) ***********
csys,0
toffst,273.15,  ! Temperature offset from absolute zero
/com,*********** Set Reference Temperature ***********
tref,22.
/wb,mat,start              !  starting to send materials
/com,*********** Send Materials ***********
MP,DENS,1,7.85e-09,	! tonne mm^-3
MP,ALPX,1,1.2e-05,	! C^-1
MP,C,1,434000000,	! mm^2 s^-2 C^-1
MP,KXX,1,60.5,	! tonne mm s^-3 C^-1
MP,RSVX,1,0.00017,	! ohm mm
MP,EX,1,200000,	! tonne s^-2 mm^-1
MP,NUXY,1,0.3,
MP,MURX,1,10000,

MP,DENS,2,7.85e-09,	! tonne mm^-3
MP,ALPX,2,1.2e-05,	! C^-1
MP,C,2,434000000,	! mm^2 s^-2 C^-1
MP,KXX,2,60.5,	! tonne mm s^-3 C^-1
MP,RSVX,2,0.00017,	! ohm mm
MP,EX,2,200000,	! tonne s^-2 mm^-1
MP,NUXY,2,0.3,
MP,MURX,2,10000,

MP,DENS,3,7.85e-09,	! tonne mm^-3
MP,ALPX,3,1.2e-05,	! C^-1
MP,C,3,434000000,	! mm^2 s^-2 C^-1
MP,KXX,3,60.5,	! tonne mm s^-3 C^-1
MP,RSVX,3,0.00017,	! ohm mm
MP,EX,3,200000,	! tonne s^-2 mm^-1
MP,NUXY,3,0.3,
MP,MURX,3,10000,

/wb,mat,end                !  done sending materials
/com,*********** Send Beam Properties ***********
SECTYPE,1,BEAM,I
SECDATA,100.,100.,100.,10.,10.,6.

secoffset,shrc
SECTYPE,2,BEAM,RECT
SECDATA,6.,50.

secoffset,cent
SECTYPE,3,BEAM,RECT
SECDATA,6.,40.

secoffset,cent
!************************* Model Summary ********************
!Linienk_rper,	Baustahl,	matid,	1
!Linienk_rper,	Baustahl,	matid,	2
!Linienk_rper,	Baustahl,	matid,	3
!************************* End Model Summary ********************
! get the diagonal of the bounding box. Needed later for other things
*get,_xmin,node,,mnloc,x
*get,_ymin,node,,mnloc,y
*get,_zmin,node,,mnloc,z
*get,_xmax,node,,mxloc,x
*get,_ymax,node,,mxloc,y
*get,_zmax,node,,mxloc,z
_ASMDIAG=(_xmax-_xmin)*(_xmax-_xmin)+(_ymax-_ymin)*(_ymax-_ymin)+(_zmax-_zmin)*(_zmax-_zmin)
_ASMDIAG=SQRT(_ASMDIAG)
/wb,contact,start          !  starting to send contact
/wb,contact,end            !  done creating contacts
/golist
/wb,load,start             !  starting to send loads
/com,*********** Simple Supports ***********
CMBLOCK,_SIMPLSU,NODE,        2
(8i10)
         1        22
cmsel,s,_SIMPLSU
d,all,ux,0
d,all,uy,0
d,all,uz,0
nsel,all
/com,******* Constant Zero Displacement Z *******
CMBLOCK,_DISPZEROUZ,NODE,        1
(8i10)
         2
cmsel,s,_DISPZEROUZ
d,all,uz,0
nsel,all
nsel,all
/com,*********** Define Line Pressure Vector Using Surface Effect Elements ***********
local,12,0,0.,0.,0.,-0.,0.,0.
csys,0
et,4,156
keyop,4,5,1   ! No orientation node
eblock,10,,,10
(15i9)
       30        4        4        4       12        1        3
       31        4        4        4       12        3        4
       32        4        4        4       12        4        5
       33        4        4        4       12        5        6
       34        4        4        4       12        6        7
       35        4        4        4       12        7        8
       36        4        4        4       12        8        9
       37        4        4        4       12        9       10
       38        4        4        4       12       10       11
       39        4        4        4       12       11        2
-1
esel,s,type,,4
keyop,4,2,1                ! Apply load in local coordinate system
esel,all

*DIM,_loadvari38x,TABLE,2,1,1,TIME,
! Time values
_loadvari38x(1,0,1) = 0.
_loadvari38x(2,0,1) = 1.
! Load values
_loadvari38x(1,1,1) = 0.
_loadvari38x(2,1,1) = 0.


*DIM,_loadvari38y,TABLE,2,1,1,TIME,
! Time values
_loadvari38y(1,0,1) = 0.
_loadvari38y(2,0,1) = 1.
! Load values
_loadvari38y(1,1,1) = -0.
_loadvari38y(2,1,1) = -3.


*DIM,_loadvari38z,TABLE,2,1,1,TIME,
! Time values
_loadvari38z(1,0,1) = 0.
_loadvari38z(2,0,1) = 1.
! Load values
_loadvari38z(1,1,1) = 0.
_loadvari38z(2,1,1) = 0.

/com,*********** Define Vertex Force Using Follower Elements ***********
et,5,201
keyo,5,1,1           ! Keep the direction constant
keyo,5,2,1           ! Apply Forces only, not moment
mat,5
real,5
type,5
en,40,12
en,41,58
r,5
rmod,5,1,1.0,              ! FX
mat,6
real,6
type,5
en,42,12
en,43,58
r,6
rmod,6,2,1.0,              ! FY
mat,7
real,7
type,5
en,44,12
en,45,58
r,7
rmod,7,3,1.0,              ! FZ

*DIM,_loadvari37x,TABLE,2,1,1,TIME,
! Time values
_loadvari37x(1,0,1) = 0.
_loadvari37x(2,0,1) = 1.
! Load values
_loadvari37x(1,1,1) = 0.
_loadvari37x(2,1,1) = 0.


*DIM,_loadvari37y,TABLE,2,1,1,TIME,
! Time values
_loadvari37y(1,0,1) = 0.
_loadvari37y(2,0,1) = 1.
! Load values
_loadvari37y(1,1,1) = -0.
_loadvari37y(2,1,1) = -500.


*DIM,_loadvari37z,TABLE,2,1,1,TIME,
! Time values
_loadvari37z(1,0,1) = 0.
_loadvari37z(2,0,1) = 1.
! Load values
_loadvari37z(1,1,1) = 0.
_loadvari37z(2,1,1) = 0.

/com,*********** Create Beam End Releases ***********
! Beam end release with connection behavior as coupled
cp,next,ux,12,58
cp,next,uy,12,58
cp,next,uz,12,58
cp,next,rotx,12,58
cp,next,roty,12,58
/gst,on,on
fini
*get,_numnode,node,0,count
*get,_numelem,elem,0,count
*get, _MAXELEMNUM, elem, 0, NUM, MAX
*get, _MAXNODENUM, node, 0, NUM, MAX
*get, _MAXELEMTYPE, etyp, 0, NUM, MAX
*get, _MAXREALCONST, real, 0, NUM, MAX
/go
/wb,load,end               !  done creating loads
/com,--- Number of total nodes = %_numnode%
/com,--- Number of contact elements = 10
/com,--- Number of spring elements = 0
/com,--- Number of bearing elements = 0
/com,--- Number of solid elements = 28
/com,--- Number of total elements = %_numelem%
*get,_wallbsol,active,,time,wall
/com,****************************************************************************
/com,*************************    SOLUTION       ********************************
/com,****************************************************************************
/solu
antype,0                   ! static analysis
eqsl,sparse,,,,,1
cntr,print,1               ! print out contact info and also make no initial contact an error
dmpopt,emat,no             ! Don't combine emat file for DANSYS
dmpopt,esav,no             ! Don't combine esav file for DANSYS
nldiag,cont,iter           ! print out contact info each equilibrium iteration
resc,,none                 ! Do not keep any restart files
/com,****************************************************
/com,******************* SOLVE FOR LS 1 ****************
esel,s,type,,4
nsle
sfe,all,1,pres,1,%_loadvari38x%
sfe,all,2,pres,1,%_loadvari38y%
sfe,all,3,pres,1,%_loadvari38z%
nsel,all
esel,all
esel,s,real,,5
sfe,all,1,pres,1,%_loadvari37x%
esel,s,real,,6
sfe,all,1,pres,1,%_loadvari37y%
esel,s,real,,7
sfe,all,1,pres,1,%_loadvari37z%
esel,all
/nopr
/gopr
nsub,1,1,1
time,1.
outres,erase
outres,all,none
outres,nsol,all
outres,rsol,all
outres,strs,all
outres,epel,all
outres,eppl,all
/nopr
esel,s,mat,,1
esel,a,mat,,2,3
cm,_elmisc,elem
esel,all
/gopr
outres,misc,all,_elmisc
stabilize,off                   ! Stabilization turned OFF by user
! *********** WB SOLVE COMMAND ***********
! check interactive state
*get,ANSINTER_,active,,int
*if,ANSINTER_,ne,0,then
/eof
*endif
solve
/com *************** Write FE CONNECTORS ********* 
CEWRITE,file,ce,,INTE
/com,****************************************************
/com,*************** FINISHED SOLVE FOR LS 1 *************
*set,_DS_PROGRESS          ! turn off progress updates to avoid virus scanning bug
*get,_wallasol,active,,time,wall
/nopr
*get,_numnode,node,0,count
*get,_numelem,elem,0,count
*get, _MAXELEMNUM, elem, 0, NUM, MAX
*get, _MAXNODENUM, node, 0, NUM, MAX,,,INTERNAL
*get, _MAXELEMTYPE, etyp, 0, NUM, MAX
*get, _MAXREALCONST, real, 0, NUM, MAX
/gopr
/post1
xmlo,ENCODING,ISO-8859-1
xmlo,parm
/xml,parm,xml
fini
/gopr
*get,_walldone,active,,time,wall
_preptime=(_wallbsol-_wallstrt)*3600
_solvtime=(_wallasol-_wallbsol)*3600
_posttime=(_walldone-_wallasol)*3600
_totaltim=(_walldone-_wallstrt)*3600
/wb,file,end               ! done with WB generated input
